*Heading
** Job name: cantelverjob Model name: Model-1
** Generated by: Abaqus/CAE 2017
*Preprint, echo=NO, model=NO, history=NO, contact=NO
**
** PARTS
**
*Part, name=cantlever123
*Node
      1,       -31.75,          45.,           6.
      2,       -31.75,          40.,           6.
      3,   8.01142502,          40.,          20.
      4,         -71.,          40.,          20.
      5,         -71.,          40.,           0.
      6,   8.01142502,          40.,           0.
      7,         -75.,          36.,          20.
      8,         -75.,          36.,           0.
      9,         -75.,           5.,          20.
     10,         -75.,           5.,           0.
     11,         -80.,           5.,          20.
     12,         -80.,           5.,           0.
     13,         -80.,          36.,          20.
     14,         -80.,          36.,           0.
     15,         -71.,          45.,          20.
     16,         -71.,          45.,           0.
     17,          7.5,          45.,          20.
     18,          7.5,          45.,           0.
     19,         12.5,          45.,          20.
     20,         12.5,          45.,           0.
** ... 3584 like lines cut
*Element, type=C3D10
   1,  457,  458,  265,  278,  595,  594,  593,  597,  596,  598
   2,  457,  399,  459,  397,  601,  600,  599,  603,  602,  604
   3,  260,  458,  265,  392,  606,  594,  605,  608,  607,  609
   4,  458,  265,  392,  457,  594,  609,  607,  595,  593,  610
   5,  457,  460,  265,  461,  612,  611,  593,  614,  613,  615
   6,  457,  392,  460,  461,  610,  616,  612,  614,  617,  613
   7,  457,  392,  458,  399,  610,  607,  595,  601,  618,  619
   8,  462,  374,  463,  402,  622,  621,  620,  624,  623,  625
   9,  462,  463,  266,  402,  620,  627,  626,  624,  625,  628
  10,  462,  458,  278,  464,  630,  596,  629,  632,  631,  633
  11,  462,  399,  458,  464,  634,  619,  630,  632,  635,  631
  12,  462,  459,  266,  278,  637,  636,  626,  629,  638,  639
  13,  465,  466,  282,  467,  642,  641,  640,  644,  643,  645
  14,  465,  466,  408,  401,  642,  647,  646,  649,  648,  650
  15,  465,  466,  269,  282,  642,  652,  651,  640,  641,  653
  16,  465,  466,  468,  269,  642,  655,  654,  651,  652,  656
  17,  465,  466,  401,  468,  642,  648,  649,  654,  655,  657
  18,  465,  269,  468,  469,  651,  656,  654,  659,  658,  660
  19,  469,  269,  468,  470,  658,  656,  660,  662,  661,  663
  20,  471,  472,  174,  451,  666,  665,  664,  668,  667,  669
** ... 1944 like lines cut
*Nset, nset=Set-1, generate
    1,  3604,     1
*Elset, elset=Set-1, generate
    1,  1964,     1
** Section: Section-1
*Solid Section, elset=Set-1, material=steel
,
*End Part
**  
**
** ASSEMBLY
**
*Assembly, name=Assembly
**  
*Instance, name=cantlever123-1, part=cantlever123
*End Instance
**  
*Instance, name=cantlever123-2, part=cantlever123
*End Instance
**  
*Nset, nset=Set-1, instance=cantlever123-2
   11,   12,   13,   14,  107,  108,  109,  110,  111,  112,  113,  114,  115,  116,  117,  118
  119,  120,  121,  122,  123,  124,  125,  126,  313,  314,  315,  316,  317,  318,  319,  320
  321,  322,  323,  324,  325,  326,  327,  328,  329,  330,  331,  332,  333,  334,  335,  336
  982, 1025, 1085, 1103, 1105, 1107, 1116, 1414, 1416, 1418, 1419, 1421, 1565, 1573, 1641, 1642
 1644, 1692, 1710, 1711, 1743, 1754, 1777, 1814, 1815, 1816, 1823, 1930, 1940, 1944, 1945, 1947
 2019, 2025, 2032, 2034, 2036, 2110, 2113, 2219, 2224, 2226, 2227, 2247, 2334, 2335, 2391, 2395
 2399, 2453, 2454, 2509, 2510, 2511, 2512, 2521, 2553, 2557, 2559, 2561, 2562, 2563, 2564, 2945
 2947, 2948, 2949, 2956, 2957, 2975, 2976, 2977, 2985, 2987, 2988, 2995, 3001, 3002, 3007, 3010
 3011, 3017, 3026, 3029, 3033, 3034, 3048, 3050, 3055, 3064, 3065, 3132, 3171, 3172, 3283, 3284
 3286, 3293, 3393, 3396, 3398, 3399, 3404, 3414, 3415, 3421, 3422, 3427, 3431, 3432, 3434, 3436
 3437, 3453, 3469, 3485, 3516
*Elset, elset=Set-1, instance=cantlever123-2
  125,  209,  210,  282,  301,  330,  372,  399,  477,  513,  538,  540,  596,  597,  620,  621
  625,  809,  818,  832,  833,  834,  838,  846,  850,  853,  855,  861,  872,  873,  883,  892
 1031, 1203, 1216, 1428, 1430, 1433, 1437, 1445, 1458, 1460, 1470, 1477, 1479, 1487, 1489, 1491
 1495, 1496, 1497, 1499, 1510, 1513, 1519, 1523, 1525, 1526, 1529, 1539, 1542, 1560, 1571, 1585
 1596, 1627, 1646, 1697, 1869, 1964
*Elset, elset=_Surf-1_S2, internal, instance=cantlever123-2
   76,  996, 1038, 1041, 1044, 1763
*Elset, elset=_Surf-1_S4, internal, instance=cantlever123-2
  499,  998, 1019, 1030, 1047, 1467
*Elset, elset=_Surf-1_S3, internal, instance=cantlever123-2
  721,  784,  789,  923,  938,  984,  985,  987, 1001, 1002, 1004, 1010, 1014, 1016, 1018, 1032
 1040, 1043, 1045, 1054, 1055, 1056, 1188, 1218, 1446, 1855, 1861
*Elset, elset=_Surf-1_S1, internal, instance=cantlever123-2
 774,
*Surface, type=ELEMENT, name=Surf-1
_Surf-1_S2, S2
_Surf-1_S4, S4
_Surf-1_S3, S3
_Surf-1_S1, S1
*Elset, elset=_Surf-2_S2, internal, instance=cantlever123-2
   76,  996, 1038, 1041, 1044, 1763
*Elset, elset=_Surf-2_S4, internal, instance=cantlever123-2
  499,  998, 1019, 1030, 1047, 1467
*Elset, elset=_Surf-2_S3, internal, instance=cantlever123-2
  721,  784,  789,  923,  938,  984,  985,  987, 1001, 1002, 1004, 1010, 1014, 1016, 1018, 1032
 1040, 1043, 1045, 1054, 1055, 1056, 1188, 1218, 1446, 1855, 1861
*Elset, elset=_Surf-2_S1, internal, instance=cantlever123-2
 774,
*Surface, type=ELEMENT, name=Surf-2
_Surf-2_S2, S2
_Surf-2_S4, S4
_Surf-2_S3, S3
_Surf-2_S1, S1
*End Assembly
** 
** MATERIALS
** 
*Material, name=steel
*Elastic
210000., 0.3
** ----------------------------------------------------------------
** 
** STEP: Step-1
** 
*Step, name=Step-1, nlgeom=NO
*Static
1., 1., 1e-05, 1.
** 
** BOUNDARY CONDITIONS
** 
** Name: BC-1 Type: Displacement/Rotation
*Boundary
Set-1, 1, 1
Set-1, 2, 2
Set-1, 3, 3
Set-1, 4, 4
Set-1, 5, 5
Set-1, 6, 6
** 
** LOADS
** 
** Name: Load-50   Type: Pressure
*Dsload
Surf-2, P, 10.
** 
** OUTPUT REQUESTS
** 
*Restart, write, frequency=0
** 
** FIELD OUTPUT: F-Output-1
** 
*Output, field, variable=PRESELECT
** 
** HISTORY OUTPUT: H-Output-1
** 
*Output, history, variable=PRESELECT
*End Step
