*Heading
** Job name: layerdsoil Model name: Model-1
** Generated by: Abaqus/CAE 2017
*Preprint, echo=NO, model=NO, history=NO, contact=NO
**
** PARTS
**
*Part, name=Part-1
*Node
      1,          55.,          55.
      2,          5.5,          55.
      3,          5.5,          10.
      4,          55.,          10.
      5,           5.,          55.
      6,           5.,          10.
      7,          5.5,          60.
      8,          5.5,        59.75
      9,          55.,        59.75
     10,          55.,          60.
     11,          5.5,        59.25
     12,          55.,        59.25
     13,          5.5,        58.75
     14,          55.,        58.75
     15,           5.,        58.75
     16,           5.,          60.
     17,           5.,        59.75
     18,           5.,        59.25
     19,   48.9573936,          55.
     20,   43.6416893,          55.
** ... 2146 like lines cut
*Element, type=CAX4R
  1,    1,   19,  382,  122
  2,   19,   20,  383,  382
  3,   20,   21,  384,  383
  4,   21,   22,  385,  384
  5,   22,   23,  386,  385
  6,   23,   24,  387,  386
  7,   24,   25,  388,  387
  8,   25,   26,  389,  388
  9,   26,   27,  390,  389
 10,   27,   28,  391,  390
 11,   28,   29,  392,  391
 12,   29,   30,  393,  392
 13,   30,   31,  394,  393
 14,   31,   32,  395,  394
 15,   32,   33,  396,  395
 16,   33,   34,  397,  396
 17,   34,   35,  398,  397
 18,   35,   36,  399,  398
 19,   36,   37,  400,  399
 20,   37,   38,  401,  400
** ... 2052 like lines cut
*Nset, nset=Set-1
    7,    8,    9,   10,   16,   17,  149,  150,  151,  152,  153,  154,  155,  156,  157,  158
  159,  160,  161,  162,  163,  164,  165,  166,  167,  168,  169,  170,  171,  172,  173,  174
  175,  176,  177,  178,  179,  180,  181,  182,  183,  184,  185,  186,  187,  188,  189,  190
  191,  192,  193,  194,  195,  196,  197,  198,  199,  200,  201,  202,  203,  204,  205,  206
  207,  208,  209,  210,  211,  212,  213,  214,  342,  343,  344,  345,  346,  347,  348, 1082
 1083, 1084, 1085, 1086, 1087, 1088, 1089, 1090, 1091, 1092, 1093, 1094, 1095, 1096, 1097, 1098
 1099, 1100, 1101, 1102, 1103, 1104, 1105, 1106, 1107, 1108, 1109, 1110, 1111, 1112, 1113, 1378
 1379, 1380
*Elset, elset=Set-1
  778,  779,  780,  781,  782,  783,  784,  785,  786,  787,  788,  789,  790,  791,  792,  793
  794,  795,  796,  797,  798,  799,  800,  801,  802,  803,  804,  805,  806,  807,  808,  809
  810,  811,  812,  813,  814,  815,  816,  817,  818,  819,  820,  821,  822,  823,  824,  825
  826,  827,  828,  829,  830,  831,  832,  833,  834,  835,  836,  837,  838,  839,  840,  841
  842,  843, 1208, 1209, 1210, 1211, 1212, 1213, 1214, 1215
*Nset, nset=Set-2
    8,    9,   11,   12,   17,   18,  150,  151,  152,  153,  154,  155,  156,  157,  158,  159
  160,  161,  162,  163,  164,  165,  166,  167,  168,  169,  170,  171,  172,  173,  174,  175
  176,  177,  178,  179,  180,  181,  215,  216,  217,  218,  219,  220,  221,  222,  223,  224
  225,  226,  227,  228,  229,  230,  231,  232,  233,  234,  235,  236,  237,  238,  239,  240
  241,  242,  243,  244,  245,  246,  247,  248,  249,  250,  251,  252,  346,  347,  348,  373
  374,  375,  376,  377,  378, 1114, 1115, 1116, 1117, 1118, 1119, 1120, 1121, 1122, 1123, 1124
 1125, 1126, 1127, 1128, 1129, 1130, 1131, 1132, 1133, 1134, 1135, 1136, 1137, 1138, 1139, 1140
 1141, 1142, 1143, 1144, 1145, 1146, 1147, 1148, 1149, 1150, 1151, 1152, 1153, 1154, 1155, 1156
 1157, 1158, 1159, 1160, 1161, 1162, 1163, 1164, 1165, 1166, 1167, 1168, 1169, 1170, 1171, 1172
 1173, 1174, 1175, 1176, 1177, 1178, 1179, 1180, 1181, 1182, 1183, 1184, 1185, 1186, 1187, 1188
 1189, 1190, 1191, 1192, 1193, 1194, 1195, 1196, 1197, 1198, 1199, 1200, 1201, 1202, 1203, 1204
 1205, 1206, 1207, 1208, 1209, 2149, 2150, 2151, 2152, 2153, 2154, 2155, 2156, 2157
*Elset, elset=Set-2
  844,  845,  846,  847,  848,  849,  850,  851,  852,  853,  854,  855,  856,  857,  858,  859
  860,  861,  862,  863,  864,  865,  866,  867,  868,  869,  870,  871,  872,  873,  874,  875
  876,  877,  878,  879,  880,  881,  882,  883,  884,  885,  886,  887,  888,  889,  890,  891
  892,  893,  894,  895,  896,  897,  898,  899,  900,  901,  902,  903,  904,  905,  906,  907
  908,  909,  910,  911,  912,  913,  914,  915,  916,  917,  918,  919,  920,  921,  922,  923
  924,  925,  926,  927,  928,  929,  930,  931,  932,  933,  934,  935,  936,  937,  938,  939
  940,  941,  942,  943,  944,  945,  946,  947,  948,  949,  950,  951,  952,  953,  954,  955
  956,  957,  958,  959,  960,  961,  962,  963,  964,  965,  966,  967,  968,  969,  970,  971
  972,  973,  974,  975, 2041, 2042, 2043, 2044, 2045, 2046, 2047, 2048, 2049, 2050, 2051, 2052
 2053, 2054, 2055, 2056
*Nset, nset=Set-3
   11,   12,   13,   14,   15,   18,  218,  219,  220,  221,  222,  223,  224,  225,  226,  227
  228,  229,  230,  231,  232,  233,  234,  235,  236,  237,  238,  239,  240,  241,  242,  243
  244,  245,  246,  247,  248,  249,  253,  254,  255,  256,  257,  258,  259,  260,  261,  262
  263,  264,  265,  266,  267,  268,  269,  270,  271,  272,  273,  274,  275,  276,  277,  278
  279,  280,  281,  282,  283,  284,  285,  286,  287,  288,  289,  290,  315,  316,  317,  376
  377,  378,  379,  380,  381, 1210, 1211, 1212, 1213, 1214, 1215, 1216, 1217, 1218, 1219, 1220
 1221, 1222, 1223, 1224, 1225, 1226, 1227, 1228, 1229, 1230, 1231, 1232, 1233, 1234, 1235, 1236
 1237, 1238, 1239, 1240, 1241, 1242, 1243, 1244, 1245, 1246, 1247, 1248, 1249, 1250, 1251, 1252
 1253, 1254, 1255, 1256, 1257, 1258, 1259, 1260, 1261, 1262, 1263, 1264, 1265, 1266, 1267, 1268
 1269, 1270, 1271, 1272, 1273, 1274, 1275, 1276, 1277, 1278, 1279, 1280, 1281, 1282, 1283, 1284
 1285, 1286, 1287, 1288, 1289, 1290, 1291, 1292, 1293, 1294, 1295, 1296, 1297, 1298, 1299, 1300
 1301, 1302, 1303, 1304, 1305, 2158, 2159, 2160, 2161, 2162, 2163, 2164, 2165, 2166
*Elset, elset=Set-3
  976,  977,  978,  979,  980,  981,  982,  983,  984,  985,  986,  987,  988,  989,  990,  991
  992,  993,  994,  995,  996,  997,  998,  999, 1000, 1001, 1002, 1003, 1004, 1005, 1006, 1007
 1008, 1009, 1010, 1011, 1012, 1013, 1014, 1015, 1016, 1017, 1018, 1019, 1020, 1021, 1022, 1023
 1024, 1025, 1026, 1027, 1028, 1029, 1030, 1031, 1032, 1033, 1034, 1035, 1036, 1037, 1038, 1039
 1040, 1041, 1042, 1043, 1044, 1045, 1046, 1047, 1048, 1049, 1050, 1051, 1052, 1053, 1054, 1055
 1056, 1057, 1058, 1059, 1060, 1061, 1062, 1063, 1064, 1065, 1066, 1067, 1068, 1069, 1070, 1071
 1072, 1073, 1074, 1075, 1076, 1077, 1078, 1079, 1080, 1081, 1082, 1083, 1084, 1085, 1086, 1087
 1088, 1089, 1090, 1091, 1092, 1093, 1094, 1095, 1096, 1097, 1098, 1099, 1100, 1101, 1102, 1103
 1104, 1105, 1106, 1107, 2057, 2058, 2059, 2060, 2061, 2062, 2063, 2064, 2065, 2066, 2067, 2068
 2069, 2070, 2071, 2072
*Nset, nset=Set-4
    1,    2,    3,    4,    5,    6,   13,   14,   15,   19,   20,   21,   22,   23,   24,   25
   26,   27,   28,   29,   30,   31,   32,   33,   34,   35,   36,   37,   38,   39,   40,   41
   42,   43,   44,   45,   46,   47,   48,   49,   50,   51,   52,   53,   54,   55,   56,   57
   58,   59,   60,   61,   62,   63,   64,   65,   66,   67,   68,   69,   70,   71,   72,   73
   74,   75,   76,   77,   78,   79,   80,   81,   82,   83,   84,   85,   86,   87,   88,   89
   90,   91,   92,   93,   94,   95,   96,   97,   98,   99,  100,  101,  102,  103,  104,  105
  106,  107,  108,  109,  110,  111,  112,  113,  114,  115,  116,  117,  118,  119,  120,  121
  122,  123,  124,  125,  126,  127,  128,  129,  130,  131,  132,  133,  134,  135,  136,  137
  138,  139,  140,  141,  142,  143,  144,  145,  146,  147,  148,  256,  257,  258,  259,  260
  261,  262,  263,  264,  265,  266,  267,  268,  269,  270,  271,  272,  273,  274,  275,  276
  277,  278,  279,  280,  281,  282,  283,  284,  285,  286,  287,  291,  292,  293,  294,  295
  296,  297,  298,  299,  300,  301,  302,  303,  304,  305,  306,  307,  308,  309,  310,  311
  312,  313,  314,  315,  316,  317,  318,  319,  320,  321,  322,  323,  324,  325,  326,  327
  328,  329,  330,  331,  332,  333,  334,  335,  336,  337,  338,  339,  340,  341,  349,  350
  351,  352,  353,  354,  355,  356,  357,  358,  359,  360,  361,  362,  363,  364,  365,  366
  367,  368,  369,  370,  371,  372,  382,  383,  384,  385,  386,  387,  388,  389,  390,  391
  392,  393,  394,  395,  396,  397,  398,  399,  400,  401,  402,  403,  404,  405,  406,  407
  408,  409,  410,  411,  412,  413,  414,  415,  416,  417,  418,  419,  420,  421,  422,  423
  424,  425,  426,  427,  428,  429,  430,  431,  432,  433,  434,  435,  436,  437,  438,  439
  440,  441,  442,  443,  444,  445,  446,  447,  448,  449,  450,  451,  452,  453,  454,  455
** ... 92 like lines cut
*Elset, elset=Set-4
    1,    2,    3,    4,    5,    6,    7,    8,    9,   10,   11,   12,   13,   14,   15,   16
   17,   18,   19,   20,   21,   22,   23,   24,   25,   26,   27,   28,   29,   30,   31,   32
   33,   34,   35,   36,   37,   38,   39,   40,   41,   42,   43,   44,   45,   46,   47,   48
   49,   50,   51,   52,   53,   54,   55,   56,   57,   58,   59,   60,   61,   62,   63,   64
   65,   66,   67,   68,   69,   70,   71,   72,   73,   74,   75,   76,   77,   78,   79,   80
   81,   82,   83,   84,   85,   86,   87,   88,   89,   90,   91,   92,   93,   94,   95,   96
   97,   98,   99,  100,  101,  102,  103,  104,  105,  106,  107,  108,  109,  110,  111,  112
  113,  114,  115,  116,  117,  118,  119,  120,  121,  122,  123,  124,  125,  126,  127,  128
  129,  130,  131,  132,  133,  134,  135,  136,  137,  138,  139,  140,  141,  142,  143,  144
  145,  146,  147,  148,  149,  150,  151,  152,  153,  154,  155,  156,  157,  158,  159,  160
  161,  162,  163,  164,  165,  166,  167,  168,  169,  170,  171,  172,  173,  174,  175,  176
  177,  178,  179,  180,  181,  182,  183,  184,  185,  186,  187,  188,  189,  190,  191,  192
  193,  194,  195,  196,  197,  198,  199,  200,  201,  202,  203,  204,  205,  206,  207,  208
  209,  210,  211,  212,  213,  214,  215,  216,  217,  218,  219,  220,  221,  222,  223,  224
  225,  226,  227,  228,  229,  230,  231,  232,  233,  234,  235,  236,  237,  238,  239,  240
  241,  242,  243,  244,  245,  246,  247,  248,  249,  250,  251,  252,  253,  254,  255,  256
  257,  258,  259,  260,  261,  262,  263,  264,  265,  266,  267,  268,  269,  270,  271,  272
  273,  274,  275,  276,  277,  278,  279,  280,  281,  282,  283,  284,  285,  286,  287,  288
  289,  290,  291,  292,  293,  294,  295,  296,  297,  298,  299,  300,  301,  302,  303,  304
  305,  306,  307,  308,  309,  310,  311,  312,  313,  314,  315,  316,  317,  318,  319,  320
** ... 87 like lines cut
** Section: exitsiolsSecrion
*Solid Section, elset=Set-4, material=exitSoilLayer
,
** Section: asphaltSection
*Solid Section, elset=Set-1, material=asphalt
,
** Section: baseSection
*Solid Section, elset=Set-2, material=baselayer
,
** Section: subbaseSection
*Solid Section, elset=Set-3, material=subBaseLayer
,
*End Part
**  
**
** ASSEMBLY
**
*Assembly, name=Assembly
**  
*Instance, name=Part-1-1, part=Part-1
*End Instance
**  
*Nset, nset=Set-1, instance=Part-1-1
   3,   4,  71,  72,  73,  74,  75,  76,  77,  78,  79,  80,  81,  82,  83,  84
  85,  86,  87,  88,  89,  90,  91,  92,  93,  94,  95,  96,  97,  98,  99, 100
 101, 102
*Elset, elset=Set-1, instance=Part-1-1, generate
 661,  693,    1
*Nset, nset=Set-2, instance=Part-1-1
   3,   6, 146, 147, 148
*Elset, elset=Set-2, instance=Part-1-1, generate
 774,  777,    1
*Nset, nset=Set-3, instance=Part-1-1
   1,   4,   9,  10,  12,  14, 103, 104, 105, 106, 107, 108, 109, 110, 111, 112
 113, 114, 115, 116, 117, 118, 119, 120, 121, 122, 182, 250, 251, 252, 288, 289
 290, 349, 350, 351, 352, 353, 354, 355, 356, 357, 358, 359, 360, 361, 362, 363
 364, 365, 366, 367, 368, 369, 370, 371, 372
*Elset, elset=Set-3, instance=Part-1-1
    1,   34,   67,  100,  133,  166,  199,  232,  265,  298,  331,  364,  397,  430,  463,  496
  529,  562,  595,  628,  661,  842,  843,  972,  973,  974,  975, 1104, 1105, 1106, 1107, 1248
 1281, 1314, 1347, 1380, 1413, 1446, 1479, 1512, 1545, 1578, 1611, 1644, 1677, 1710, 1743, 1776
 1809, 1842, 1875, 1908, 1941, 1974, 2007, 2040
*Nset, nset=Set-4, instance=Part-1-1
   5,   6,  15,  16,  17,  18, 126, 127, 128, 129, 130, 131, 132, 133, 134, 135
 136, 137, 138, 139, 140, 141, 142, 143, 144, 145, 318, 319, 320, 321, 322, 323
 324, 325, 326, 327, 328, 329, 330, 331, 332, 333, 334, 335, 336, 337, 338, 339
 340, 341, 345, 373, 374, 375, 379, 380, 381
*Elset, elset=Set-4, instance=Part-1-1
  697,  701,  705,  709,  713,  717,  721,  725,  729,  733,  737,  741,  745,  749,  753,  757
  761,  765,  769,  773,  777, 1108, 1112, 1116, 1120, 1124, 1128, 1132, 1136, 1140, 1144, 1148
 1152, 1156, 1160, 1164, 1168, 1172, 1176, 1180, 1184, 1188, 1192, 1196, 1200, 1204, 1214, 1215
 2053, 2054, 2055, 2056, 2069, 2070, 2071, 2072
*Elset, elset=_Surf-1_S2, internal, instance=Part-1-1, generate
 1209,  1215,     2
*Surface, type=ELEMENT, name=Surf-1
_Surf-1_S2, S2
*End Assembly
** 
** MATERIALS
** 
*Material, name=asphalt
*Elastic
 7e+11, 0.3
*Material, name=baselayer
*Elastic
 7e+10, 0.3
*Material, name=exitSoilLayer
*Elastic
 7e+08, 0.3
*Material, name=subBaseLayer
*Elastic
 7e+09, 0.3
** ----------------------------------------------------------------
** 
** STEP: Step-1
** 
*Step, name=Step-1, nlgeom=YES
*Static
0.1, 1., 1e-05, 1.
** 
** BOUNDARY CONDITIONS
** 
** Name: BC-1 Type: Displacement/Rotation
*Boundary
Set-1, 1, 1
Set-1, 2, 2
** Name: BC-2 Type: Displacement/Rotation
*Boundary
Set-2, 1, 1
Set-2, 2, 2
** Name: BC-3 Type: Displacement/Rotation
*Boundary
Set-3, 1, 1
** Name: BC-4 Type: Symmetry/Antisymmetry/Encastre
*Boundary
Set-4, XSYMM
** 
** LOADS
** 
** Name: Load-1   Type: Pressure
*Dsload
Surf-1, P, 10000.
** 
** OUTPUT REQUESTS
** 
*Restart, write, frequency=0
** 
** FIELD OUTPUT: F-Output-1
** 
*Output, field, variable=PRESELECT
** 
** HISTORY OUTPUT: H-Output-1
** 
*Output, history, variable=PRESELECT
*End Step
